6np5_ligand


 54 56  0  0  0  0  0  0  0  0999 V2000
  112.7396  -13.5832   -6.3582 C   0  0  0  0  0  0  0  0  0  0  0  0
  112.0460  -14.0011   -7.6951 C   0  0  0  0  0  0  0  0  0  0  0  0
  110.7980  -14.9133   -7.4674 C   0  0  0  0  0  0  0  0  0  0  0  0
  111.0120  -16.1010   -6.4542 C   0  0  0  0  0  0  0  0  0  0  0  0
  112.4171  -16.0301   -5.7909 C   0  0  0  0  0  0  0  0  0  0  0  0
  112.6686  -14.6278   -5.2341 C   0  0  0  0  0  0  0  0  0  0  0  0
  112.5205  -17.0483   -4.6971 N   0  0  0  0  0  0  0  0  0  0  0  0
  112.2095  -12.2617   -5.8711 N   0  0  0  0  0  0  0  0  0  0  0  0
  110.3206  -15.4354   -8.7265 O   0  0  0  0  0  0  0  0  0  0  0  0
  111.9435  -16.8644   -3.8606 H   0  0  0  0  0  0  0  0  0  0  0  0
  112.2435  -17.9846   -5.0421 H   0  0  0  0  0  0  0  0  0  0  0  0
  113.4910  -17.1679   -4.3514 H   0  0  0  0  0  0  0  0  0  0  0  0
  112.8916  -11.7370   -5.2942 H   0  0  0  0  0  0  0  0  0  0  0  0
  112.0176  -11.6456   -6.6869 H   0  0  0  0  0  0  0  0  0  0  0  0
  111.3267  -12.2677   -5.3385 H   0  0  0  0  0  0  0  0  0  0  0  0
  110.2613  -14.6561   -9.3344 H   0  0  0  0  0  0  0  0  0  0  0  0
  110.8738  -17.3903   -7.0910 O   0  0  0  0  0  0  0  0  0  0  0  0
  109.9851  -18.3150   -6.4163 C   0  0  0  0  0  0  0  0  0  0  0  0
  110.7270  -19.6609   -6.2078 C   0  0  0  0  0  0  0  0  0  0  0  0
  109.8258  -20.6812   -5.4874 C   0  0  0  0  0  0  0  0  0  0  0  0
  108.8609  -19.9931   -4.5030 C   0  0  0  0  0  0  0  0  0  0  0  0
  109.4159  -18.6292   -4.0374 C   0  0  0  0  0  0  0  0  0  0  0  0
  109.6062  -17.7066   -5.1634 O   0  0  0  0  0  0  0  0  0  0  0  0
  110.6906  -21.5867   -4.8112 O   0  0  0  0  0  0  0  0  0  0  0  0
  107.6387  -19.7352   -5.1953 O   0  0  0  0  0  0  0  0  0  0  0  0
  111.2361  -20.2473   -7.4917 N   0  0  0  0  0  0  0  0  0  0  0  0
  110.2074  -22.4060   -4.5694 H   0  0  0  0  0  0  0  0  0  0  0  0
  107.0258  -20.4957   -5.0762 H   0  0  0  0  0  0  0  0  0  0  0  0
  112.0268  -20.8839   -7.2989 H   0  0  0  0  0  0  0  0  0  0  0  0
  110.5377  -20.8035   -8.0033 H   0  0  0  0  0  0  0  0  0  0  0  0
  111.5588  -19.5089   -8.1448 H   0  0  0  0  0  0  0  0  0  0  0  0
  108.4926  -17.9436   -2.9852 C   0  0  0  0  0  0  0  0  0  0  0  0
  108.6087  -18.5032   -1.6091 N   0  0  0  0  0  0  0  0  0  0  0  0
  109.5573  -18.4606   -1.2044 H   0  0  0  0  0  0  0  0  0  0  0  0
  108.2658  -19.4716   -1.4991 H   0  0  0  0  0  0  0  0  0  0  0  0
  108.0220  -17.9544   -0.9540 H   0  0  0  0  0  0  0  0  0  0  0  0
  111.6858  -12.7667   -8.3484 O   0  0  0  0  0  0  0  0  0  0  0  0
  110.4315  -12.1532   -7.9774 C   0  0  0  0  0  0  0  0  0  0  0  0
  109.4540  -12.3196   -9.1797 C   0  0  0  0  0  0  0  0  0  0  0  0
  108.1421  -11.5348   -8.9661 C   0  0  0  0  0  0  0  0  0  0  0  0
  108.4570  -10.0825   -8.5722 C   0  0  0  0  0  0  0  0  0  0  0  0
  109.4329  -10.0731   -7.3715 C   0  0  0  0  0  0  0  0  0  0  0  0
  107.3671  -11.5166  -10.2609 N   0  0  0  0  0  0  0  0  0  0  0  0
  110.6621  -10.7770   -7.6760 O   0  0  0  0  0  0  0  0  0  0  0  0
  110.0911  -11.8911  -10.3998 O   0  0  0  0  0  0  0  0  0  0  0  0
  109.0646   -9.4510   -9.7157 O   0  0  0  0  0  0  0  0  0  0  0  0
  107.1197  -12.4494  -10.6223 H   0  0  0  0  0  0  0  0  0  0  0  0
  106.4932  -10.9701  -10.2093 H   0  0  0  0  0  0  0  0  0  0  0  0
  107.9416  -11.0626  -10.9946 H   0  0  0  0  0  0  0  0  0  0  0  0
  110.2638  -10.9249  -10.3390 H   0  0  0  0  0  0  0  0  0  0  0  0
  108.9035   -8.4848   -9.6330 H   0  0  0  0  0  0  0  0  0  0  0  0
  109.7743   -8.6393   -6.9441 C   0  0  0  0  0  0  0  0  0  0  0  0
  109.3529   -8.4530   -5.6089 O   0  0  0  0  0  0  0  0  0  0  0  0
  109.6013   -7.5564   -5.3068 H   0  0  0  0  0  0  0  0  0  0  0  0
 18 19  1  0  0  0
 18 23  1  0  0  0
 17 18  1  0  0  0
 19 20  1  0  0  0
 19 26  1  0  0  0
 20 21  1  0  0  0
 20 24  1  0  0  0
 22 21  1  0  0  0
 21 25  1  0  0  0
 22 32  1  0  0  0
 23 22  1  0  0  0
 32 33  1  0  0  0
  2  1  1  0  0  0
  1  6  1  0  0  0
  1  8  1  0  0  0
  2  3  1  0  0  0
 37  2  1  0  0  0
  3  4  1  0  0  0
  3  9  1  0  0  0
  4  5  1  0  0  0
  4 17  1  0  0  0
  6  5  1  0  0  0
  5  7  1  0  0  0
 38 39  1  0  0  0
 38 37  1  0  0  0
 38 44  1  0  0  0
 39 40  1  0  0  0
 39 45  1  0  0  0
 40 41  1  0  0  0
 40 43  1  0  0  0
 41 42  1  0  0  0
 41 46  1  0  0  0
 42 52  1  0  0  0
 42 44  1  0  0  0
 52 53  1  0  0  0
 33 34  1  0  0  0
 33 35  1  0  0  0
 33 36  1  0  0  0
  7 10  1  0  0  0
  7 11  1  0  0  0
  7 12  1  0  0  0
  8 13  1  0  0  0
  8 14  1  0  0  0
  8 15  1  0  0  0
 43 47  1  0  0  0
 43 48  1  0  0  0
 43 49  1  0  0  0
 24 27  1  0  0  0
 25 28  1  0  0  0
  9 16  1  0  0  0
 45 50  1  0  0  0
 46 51  1  0  0  0
 53 54  1  0  0  0
 26 29  1  0  0  0
 26 30  1  0  0  0
 26 31  1  0  0  0
M  CHG 1   7   1
M  CHG 1   8   1
M  CHG 1  26   1
M  CHG 1  33   1
M  CHG 1  43   1
M  END
> <minimizedAffinity>
-10.17125

$$$$
